# OC package for MODFLOW-NWT generated by Flopy 3.4.3
HEAD PRINT FORMAT  15
HEAD SAVE UNIT    51
DRAWDOWN PRINT FORMAT   0
COMPACT BUDGET AUX

period 1 step 1 
  print head
  print budget
  save head
  save budget
period 1 step 2 
  print head
  print budget
  save head
  save budget
 period 1 step 3 
  print head
  print budget
  save head
  save budget
period 1 step 4
  print head
  print budget
  save head
  save budget
period 1 step 5
  print head
  print budget
  save head
  save budget
