# NWT package for MODFLOW-NWT generated by Flopy 3.4.3
 1.000e-04 5.000e+02       100 1.000e-05         1         0         0    SIMPLE
