# UPW package for MODFLOW-NWT generated by Flopy 3.4.3
         0    -1E+03         0         0 
         1
         0
   1.000000E+00
         0
         0
INTERNAL               1     (FREE) -1 #hk                            
   1.750000E-02   1.750000E-02   1.750000E-02   1.750000E-02   1.750000E-02   1.750000E-02   1.750000E-02   1.750000E-02   1.750000E-02   1.750000E-02   1.750000E-02   1.750000E-02   1.750000E-02   1.750000E-02   1.750000E-02   1.750000E-02   1.750000E-02   1.750000E-02   1.750000E-02   1.750000E-02   1.750000E-02   1.750000E-02   1.750000E-02   1.750000E-02   1.750000E-02   1.750000E-02   1.750000E-02   1.750000E-02   1.750000E-02   1.750000E-02   1.750000E-02   1.750000E-02   1.750000E-02   1.750000E-02   1.750000E-02   1.750000E-02   1.750000E-02   1.750000E-02   1.750000E-02   1.750000E-02   1.750000E-02   1.750000E-02   1.750000E-02   1.750000E-02   1.750000E-02   1.750000E-02   1.750000E-02   1.750000E-02   1.750000E-02   1.750000E-02   1.750000E-02   1.750000E-02   1.750000E-02   1.750000E-02   1.750000E-02   1.750000E-02   1.750000E-02   1.750000E-02   1.750000E-02   1.750000E-02   1.750000E-02   1.750000E-02   1.750000E-02   1.750000E-02   1.750000E-02   1.750000E-02   1.750000E-02   1.750000E-02   1.750000E-02   1.750000E-02   1.750000E-02   1.750000E-02   1.750000E-02   1.750000E-02   1.750000E-02   1.750000E-02   1.750000E-02   1.750000E-02   1.750000E-02   1.750000E-02   1.750000E-02   1.750000E-02   1.750000E-02   1.750000E-02   1.750000E-02   1.750000E-02   1.750000E-02   1.750000E-02   1.750000E-02   1.750000E-02   1.750000E-02   1.750000E-02   1.750000E-02   1.750000E-02   1.750000E-02   1.750000E-02   1.750000E-02   1.750000E-02   1.750000E-02   1.750000E-02   1.750000E-02   1.750000E-02   1.750000E-02   1.750000E-02   1.750000E-02   1.750000E-02   1.750000E-02   1.750000E-02   1.750000E-02   1.750000E-02   1.750000E-02   1.750000E-02   1.750000E-02   1.750000E-02   1.750000E-02   1.750000E-02   1.750000E-02   1.750000E-02   1.750000E-02   1.750000E-02   1.750000E-02   1.750000E-02   1.750000E-02   1.750000E-02   1.750000E-02   1.750000E-02   1.750000E-02   1.750000E-02   1.750000E-02   1.750000E-02   1.750000E-02   1.750000E-02   1.750000E-02   1.750000E-02   1.750000E-02   1.750000E-02   1.750000E-02   1.750000E-02   1.750000E-02   1.750000E-02   1.750000E-02   1.750000E-02   1.750000E-02   1.750000E-02   1.750000E-02   1.750000E-02   1.750000E-02   1.750000E-02   1.750000E-02
   1.750000E-02   1.750000E-02   1.750000E-02   1.750000E-02   1.750000E-02   1.750000E-02   1.750000E-02   1.750000E-02   1.750000E-02   1.750000E-02   1.750000E-02   1.750000E-02   1.750000E-02   1.750000E-02   1.750000E-02   1.750000E-02   1.750000E-02   1.750000E-02   1.750000E-02   1.750000E-02   1.750000E-02   1.750000E-02   1.750000E-02   1.750000E-02   1.750000E-02   1.750000E-02   1.750000E-02   1.750000E-02   1.750000E-02   1.750000E-02   1.750000E-02   1.750000E-02   1.750000E-02   1.750000E-02   1.750000E-02   1.750000E-02   1.750000E-02   1.750000E-02   1.750000E-02   1.750000E-02   1.750000E-02   1.750000E-02   1.750000E-02   1.750000E-02   1.750000E-02   1.750000E-02   1.750000E-02   1.750000E-02   1.750000E-02   1.750000E-02   1.750000E-02   1.750000E-02   1.750000E-02   1.750000E-02   1.750000E-02   1.750000E-02   1.750000E-02   1.750000E-02   1.750000E-02   1.750000E-02   1.750000E-02   1.750000E-02   1.750000E-02   1.750000E-02   1.750000E-02   1.750000E-02   1.750000E-02   1.750000E-02   1.750000E-02   1.750000E-02   1.750000E-02   1.750000E-02   1.750000E-02   1.750000E-02   1.750000E-02   1.750000E-02   1.750000E-02   1.750000E-02   1.750000E-02   1.750000E-02   1.750000E-02   1.750000E-02   1.750000E-02   1.750000E-02   1.750000E-02   1.750000E-02   1.750000E-02   1.750000E-02   1.750000E-02   1.750000E-02   1.750000E-02   1.750000E-02   1.750000E-02   1.750000E-02   1.750000E-02   1.750000E-02   1.750000E-02   1.750000E-02   1.750000E-02   1.750000E-02   1.750000E-02   1.750000E-02   1.750000E-02   1.750000E-02   1.750000E-02   1.750000E-02   1.750000E-02   1.750000E-02   1.750000E-02   1.750000E-02   1.750000E-02   1.750000E-02   1.750000E-02   1.750000E-02   1.750000E-02   1.750000E-02   1.750000E-02   1.750000E-02   1.750000E-02   1.750000E-02   1.750000E-02   1.750000E-02   1.750000E-02   1.750000E-02   1.750000E-02   1.750000E-02   1.750000E-02   1.750000E-02   1.750000E-02   1.750000E-02   1.750000E-02   1.750000E-02   1.750000E-02   1.750000E-02   1.750000E-02   1.750000E-02   1.750000E-02   1.750000E-02   1.750000E-02   1.750000E-02   1.750000E-02   1.750000E-02   1.750000E-02   1.750000E-02   1.750000E-02   1.750000E-02   1.750000E-02   1.750000E-02   1.750000E-02
   1.750000E-02   1.750000E-02   1.750000E-02   1.750000E-02   1.750000E-02   1.750000E-02   1.750000E-02   1.750000E-02   1.750000E-02   1.750000E-02   1.750000E-02   1.750000E-02   1.750000E-02   1.750000E-02   1.750000E-02   1.750000E-02   1.750000E-02   1.750000E-02   1.750000E-02   1.750000E-02   1.750000E-02   1.750000E-02   1.750000E-02   1.750000E-02   1.750000E-02   1.750000E-02   1.750000E-02   1.750000E-02   1.750000E-02   1.750000E-02   1.750000E-02   1.750000E-02   1.750000E-02   1.750000E-02   1.750000E-02   1.750000E-02   1.750000E-02   1.750000E-02   1.750000E-02   1.750000E-02   1.750000E-02   1.750000E-02   1.750000E-02   1.750000E-02   1.750000E-02   1.750000E-02   1.750000E-02   1.750000E-02   1.750000E-02   1.750000E-02   1.750000E-02   1.750000E-02   1.750000E-02   1.750000E-02   1.750000E-02   1.750000E-02   1.750000E-02   1.750000E-02   1.750000E-02   1.750000E-02   1.750000E-02   1.750000E-02   1.750000E-02   1.750000E-02   1.750000E-02   1.750000E-02   1.750000E-02   1.750000E-02   1.750000E-02   1.750000E-02   1.750000E-02   1.750000E-02   1.750000E-02   1.750000E-02   1.750000E-02   1.750000E-02   1.750000E-02   1.750000E-02   1.750000E-02   1.750000E-02   1.750000E-02   1.750000E-02   1.750000E-02   1.750000E-02   1.750000E-02   1.750000E-02   1.750000E-02   1.750000E-02   1.750000E-02   1.750000E-02   1.750000E-02   1.750000E-02   1.750000E-02   1.750000E-02   1.750000E-02   1.750000E-02   1.750000E-02   1.750000E-02   1.750000E-02   1.750000E-02   1.750000E-02   1.750000E-02   1.750000E-02   1.750000E-02   1.750000E-02   1.750000E-02   1.750000E-02   1.750000E-02   1.750000E-02   1.750000E-02   1.750000E-02   1.750000E-02   1.750000E-02   1.750000E-02   1.750000E-02   1.750000E-02   1.750000E-02   1.750000E-02   1.750000E-02   1.750000E-02   1.750000E-02   1.750000E-02   1.750000E-02   1.750000E-02   1.750000E-02   1.750000E-02   1.750000E-02   1.750000E-02   1.750000E-02   1.750000E-02   1.750000E-02   1.750000E-02   1.750000E-02   1.750000E-02   1.750000E-02   1.750000E-02   1.750000E-02   1.750000E-02   1.750000E-02   1.750000E-02   1.750000E-02   1.750000E-02   1.750000E-02   1.750000E-02   1.750000E-02   1.750000E-02   1.750000E-02   1.750000E-02   1.750000E-02
   1.750000E-02   1.750000E-02   1.750000E-02   1.750000E-02   1.750000E-02   1.750000E-02   1.750000E-02   1.750000E-02   1.750000E-02   1.750000E-02   1.750000E-02   1.750000E-02   1.750000E-02   1.750000E-02   1.750000E-02   1.750000E-02   1.750000E-02   1.750000E-02   1.750000E-02   1.750000E-02   1.750000E-02   1.750000E-02   1.750000E-02   1.750000E-02   1.750000E-02   1.750000E-02   1.750000E-02   1.750000E-02   1.750000E-02   1.750000E-02   1.750000E-02   1.750000E-02   1.750000E-02   1.750000E-02   1.750000E-02   1.750000E-02   1.750000E-02   1.750000E-02   1.750000E-02   1.750000E-02   1.750000E-02   1.750000E-02   1.750000E-02   1.750000E-02   1.750000E-02   1.750000E-02   1.750000E-02   1.750000E-02   1.750000E-02   1.750000E-02   1.750000E-02   1.750000E-02   1.750000E-02   1.750000E-02   1.750000E-02   1.750000E-02   1.750000E-02   1.750000E-02   1.750000E-02   1.750000E-02   1.750000E-02   1.750000E-02   1.750000E-02   1.750000E-02   1.750000E-02   1.750000E-02   1.750000E-02   1.750000E-02   1.750000E-02   1.750000E-02   1.750000E-02   1.750000E-02   1.750000E-02   1.750000E-02   1.750000E-02   1.750000E-02   1.750000E-02   1.750000E-02   1.750000E-02   1.750000E-02   1.750000E-02   1.750000E-02   1.750000E-02   1.750000E-02   1.750000E-02   1.750000E-02   1.750000E-02   1.750000E-02   1.750000E-02   1.750000E-02   1.750000E-02   1.750000E-02   1.750000E-02   1.750000E-02   1.750000E-02   1.750000E-02   1.750000E-02   1.750000E-02   1.750000E-02   1.750000E-02   1.750000E-02   1.750000E-02   1.750000E-02   1.750000E-02   1.750000E-02   1.750000E-02   1.750000E-02   1.750000E-02   1.750000E-02   1.750000E-02   1.750000E-02   1.750000E-02   1.750000E-02   1.750000E-02   1.750000E-02   1.750000E-02   1.750000E-02   1.750000E-02   1.750000E-02   1.750000E-02   1.750000E-02   1.750000E-02   1.750000E-02   1.750000E-02   1.750000E-02   1.750000E-02   1.750000E-02   1.750000E-02   1.750000E-02   1.750000E-02   1.750000E-02   1.750000E-02   1.750000E-02   1.750000E-02   1.750000E-02   1.750000E-02   1.750000E-02   1.750000E-02   1.750000E-02   1.750000E-02   1.750000E-02   1.750000E-02   1.750000E-02   1.750000E-02   1.750000E-02   1.750000E-02   1.750000E-02   1.750000E-02   1.750000E-02
   1.750000E-02   1.750000E-02   1.750000E-02   1.750000E-02   1.750000E-02   1.750000E-02   1.750000E-02   1.750000E-02   1.750000E-02   1.750000E-02   1.750000E-02   1.750000E-02   1.750000E-02   1.750000E-02   1.750000E-02   1.750000E-02   1.750000E-02   1.750000E-02   1.750000E-02   1.750000E-02   1.750000E-02   1.750000E-02   1.750000E-02   1.750000E-02   1.750000E-02   1.750000E-02   1.750000E-02   1.750000E-02   1.750000E-02   1.750000E-02   1.750000E-02   1.750000E-02   1.750000E-02   1.750000E-02   1.750000E-02   1.750000E-02   1.750000E-02   1.750000E-02   1.750000E-02   1.750000E-02   1.750000E-02   1.750000E-02   1.750000E-02   1.750000E-02   1.750000E-02   1.750000E-02   1.750000E-02   1.750000E-02   1.750000E-02   1.750000E-02   1.750000E-02   1.750000E-02   1.750000E-02   1.750000E-02   1.750000E-02   1.750000E-02   1.750000E-02   1.750000E-02   1.750000E-02   1.750000E-02   1.750000E-02   1.750000E-02   1.750000E-02   1.750000E-02   1.750000E-02   1.750000E-02   1.750000E-02   1.750000E-02   1.750000E-02   1.750000E-02   1.750000E-02   1.750000E-02   1.750000E-02   1.750000E-02   1.750000E-02   1.750000E-02   1.750000E-02   1.750000E-02   1.750000E-02   1.750000E-02   1.750000E-02   1.750000E-02   1.750000E-02   1.750000E-02   1.750000E-02   1.750000E-02   1.750000E-02   1.750000E-02   1.750000E-02   1.750000E-02   1.750000E-02   1.750000E-02   1.750000E-02   1.750000E-02   1.750000E-02   1.750000E-02   1.750000E-02   1.750000E-02   1.750000E-02   1.750000E-02   1.750000E-02   1.750000E-02   1.750000E-02   1.750000E-02   1.750000E-02   1.750000E-02   1.750000E-02   1.750000E-02   1.750000E-02   1.750000E-02   1.750000E-02   1.750000E-02   1.750000E-02   1.750000E-02   1.750000E-02   1.750000E-02   1.750000E-02   1.750000E-02   1.750000E-02   1.750000E-02   1.750000E-02   1.750000E-02   1.750000E-02   1.750000E-02   1.750000E-02   1.750000E-02   1.750000E-02   1.750000E-02   1.750000E-02   1.750000E-02   1.750000E-02   1.750000E-02   1.750000E-02   1.750000E-02   1.750000E-02   1.750000E-02   1.750000E-02   1.750000E-02   1.750000E-02   1.750000E-02   1.750000E-02   1.750000E-02   1.750000E-02   1.750000E-02   1.750000E-02   1.750000E-02   1.750000E-02   1.750000E-02   1.750000E-02
   1.750000E-02   1.750000E-02   1.750000E-02   1.750000E-02   1.750000E-02   1.750000E-02   1.750000E-02   1.750000E-02   1.750000E-02   1.750000E-02   1.750000E-02   1.750000E-02   1.750000E-02   1.750000E-02   1.750000E-02   1.750000E-02   1.750000E-02   1.750000E-02   1.750000E-02   1.750000E-02   1.750000E-02   1.750000E-02   1.750000E-02   1.750000E-02   1.750000E-02   1.750000E-02   1.750000E-02   1.750000E-02   1.750000E-02   1.750000E-02   1.750000E-02   1.750000E-02   1.750000E-02   1.750000E-02   1.750000E-02   1.750000E-02   1.750000E-02   1.750000E-02   1.750000E-02   1.750000E-02   1.750000E-02   1.750000E-02   1.750000E-02   1.750000E-02   1.750000E-02   1.750000E-02   1.750000E-02   1.750000E-02   1.750000E-02   1.750000E-02   1.750000E-02   1.750000E-02   1.750000E-02   1.750000E-02   1.750000E-02   1.750000E-02   1.750000E-02   1.750000E-02   1.750000E-02   1.750000E-02   1.750000E-02   1.750000E-02   1.750000E-02   1.750000E-02   1.750000E-02   1.750000E-02   1.750000E-02   1.750000E-02   1.750000E-02   1.750000E-02   1.750000E-02   1.750000E-02   1.750000E-02   1.750000E-02   1.750000E-02   1.750000E-02   1.750000E-02   1.750000E-02   1.750000E-02   1.750000E-02   1.750000E-02   1.750000E-02   1.750000E-02   1.750000E-02   1.750000E-02   1.750000E-02   1.750000E-02   1.750000E-02   1.750000E-02   1.750000E-02   1.750000E-02   1.750000E-02   1.750000E-02   1.750000E-02   1.750000E-02   1.750000E-02   1.750000E-02   1.750000E-02   1.750000E-02   1.750000E-02   1.750000E-02   1.750000E-02   1.750000E-02   1.750000E-02   1.750000E-02   1.750000E-02   1.750000E-02   1.750000E-02   1.750000E-02   1.750000E-02   1.750000E-02   1.750000E-02   1.750000E-02   1.750000E-02   1.750000E-02   1.750000E-02   1.750000E-02   1.750000E-02   1.750000E-02   1.750000E-02   1.750000E-02   1.750000E-02   1.750000E-02   1.750000E-02   1.750000E-02   1.750000E-02   1.750000E-02   1.750000E-02   1.750000E-02   1.750000E-02   1.750000E-02   1.750000E-02   1.750000E-02   1.750000E-02   1.750000E-02   1.750000E-02   1.750000E-02   1.750000E-02   1.750000E-02   1.750000E-02   1.750000E-02   1.750000E-02   1.750000E-02   1.750000E-02   1.750000E-02   1.750000E-02   1.750000E-02   1.750000E-02   1.750000E-02
   1.750000E-02   1.750000E-02   1.750000E-02   1.750000E-02   1.750000E-02   1.750000E-02   1.750000E-02   1.750000E-02   1.750000E-02   1.750000E-02   1.750000E-02   1.750000E-02   1.750000E-02   1.750000E-02   1.750000E-02   1.750000E-02   1.750000E-02   1.750000E-02   1.750000E-02   1.750000E-02   1.750000E-02   1.750000E-02   1.750000E-02   1.750000E-02   1.750000E-02   1.750000E-02   1.750000E-02   1.750000E-02   1.750000E-02   1.750000E-02   1.750000E-02   1.750000E-02   1.750000E-02   1.750000E-02   1.750000E-02   1.750000E-02   1.750000E-02   1.750000E-02   1.750000E-02   1.750000E-02   1.750000E-02   1.750000E-02   1.750000E-02   1.750000E-02   1.750000E-02   1.750000E-02   1.750000E-02   1.750000E-02   1.750000E-02   1.750000E-02   1.750000E-02   1.750000E-02   1.750000E-02   1.750000E-02   1.750000E-02   1.750000E-02   1.750000E-02   1.750000E-02   1.750000E-02   1.750000E-02   1.750000E-02   1.750000E-02   1.750000E-02   1.750000E-02   1.750000E-02   1.750000E-02   1.750000E-02   1.750000E-02   1.750000E-02   1.750000E-02   1.750000E-02   1.750000E-02   1.750000E-02   1.750000E-02   1.750000E-02   1.750000E-02   1.750000E-02   1.750000E-02   1.750000E-02   1.750000E-02   1.750000E-02   1.750000E-02   1.750000E-02   1.750000E-02   1.750000E-02   1.750000E-02   1.750000E-02   1.750000E-02   1.750000E-02   1.750000E-02   1.750000E-02   1.750000E-02   1.750000E-02   1.750000E-02   1.750000E-02   1.750000E-02   1.750000E-02   1.750000E-02   1.750000E-02   1.750000E-02   1.750000E-02   1.750000E-02   1.750000E-02   1.750000E-02   1.750000E-02   1.750000E-02   1.750000E-02   1.750000E-02   1.750000E-02   1.750000E-02   1.750000E-02   1.750000E-02   1.750000E-02   1.750000E-02   1.750000E-02   1.750000E-02   1.750000E-02   1.750000E-02   1.750000E-02   1.750000E-02   1.750000E-02   1.750000E-02   1.750000E-02   1.750000E-02   1.750000E-02   1.750000E-02   1.750000E-02   1.750000E-02   1.750000E-02   1.750000E-02   1.750000E-02   1.750000E-02   1.750000E-02   1.750000E-02   1.750000E-02   1.750000E-02   1.750000E-02   1.750000E-02   1.750000E-02   1.750000E-02   1.750000E-02   1.750000E-02   1.750000E-02   1.750000E-02   1.750000E-02   1.750000E-02   1.750000E-02   1.750000E-02   1.750000E-02
   1.750000E-02   1.750000E-02   1.750000E-02   1.750000E-02   1.750000E-02   1.750000E-02   1.750000E-02   1.750000E-02   1.750000E-02   1.750000E-02   1.750000E-02   1.750000E-02   1.750000E-02   1.750000E-02   1.750000E-02   1.750000E-02   1.750000E-02   1.750000E-02   1.750000E-02   1.750000E-02   1.750000E-02   1.750000E-02   1.750000E-02   1.750000E-02   1.750000E-02   1.750000E-02   1.750000E-02   1.750000E-02   1.750000E-02   1.750000E-02   1.750000E-02   1.750000E-02   1.750000E-02   1.750000E-02   1.750000E-02   1.750000E-02   1.750000E-02   1.750000E-02   1.750000E-02   1.750000E-02   1.750000E-02   1.750000E-02   1.750000E-02   1.750000E-02   1.750000E-02   1.750000E-02   1.750000E-02   1.750000E-02   1.750000E-02   1.750000E-02   1.750000E-02   1.750000E-02   1.750000E-02   1.750000E-02   1.750000E-02   1.750000E-02   1.750000E-02   1.750000E-02   1.750000E-02   1.750000E-02   1.750000E-02   1.750000E-02   1.750000E-02   1.750000E-02   1.750000E-02   1.750000E-02   1.750000E-02   1.750000E-02   1.750000E-02   1.750000E-02   1.750000E-02   1.750000E-02   1.750000E-02   1.750000E-02   1.750000E-02   1.750000E-02   1.750000E-02   1.750000E-02   1.750000E-02   1.750000E-02   1.750000E-02   1.750000E-02   1.750000E-02   1.750000E-02   1.750000E-02   1.750000E-02   1.750000E-02   1.750000E-02   1.750000E-02   1.750000E-02   1.750000E-02   1.750000E-02   1.750000E-02   1.750000E-02   1.750000E-02   1.750000E-02   1.750000E-02   1.750000E-02   1.750000E-02   1.750000E-02   1.750000E-02   1.750000E-02   1.750000E-02   1.750000E-02   1.750000E-02   1.750000E-02   1.750000E-02   1.750000E-02   1.750000E-02   1.750000E-02   1.750000E-02   1.750000E-02   1.750000E-02   1.750000E-02   1.750000E-02   1.750000E-02   1.750000E-02   1.750000E-02   1.750000E-02   1.750000E-02   1.750000E-02   1.750000E-02   1.750000E-02   1.750000E-02   1.750000E-02   1.750000E-02   1.750000E-02   1.750000E-02   1.750000E-02   1.750000E-02   1.750000E-02   1.750000E-02   1.750000E-02   1.750000E-02   1.750000E-02   1.750000E-02   1.750000E-02   1.750000E-02   1.750000E-02   1.750000E-02   1.750000E-02   1.750000E-02   1.750000E-02   1.750000E-02   1.750000E-02   1.750000E-02   1.750000E-02   1.750000E-02   1.750000E-02
   1.750000E-02   1.750000E-02   1.750000E-02   1.750000E-02   1.750000E-02   1.750000E-02   1.750000E-02   1.750000E-02   1.750000E-02   1.750000E-02   1.750000E-02   1.750000E-02   1.750000E-02   1.750000E-02   1.750000E-02   1.750000E-02   1.750000E-02   1.750000E-02   1.750000E-02   1.750000E-02   1.750000E-02   1.750000E-02   1.750000E-02   1.750000E-02   1.750000E-02   1.750000E-02   1.750000E-02   1.750000E-02   1.750000E-02   1.750000E-02   1.750000E-02   1.750000E-02   1.750000E-02   1.750000E-02   1.750000E-02   1.750000E-02   1.750000E-02   1.750000E-02   1.750000E-02   1.750000E-02   1.750000E-02   1.750000E-02   1.750000E-02   1.750000E-02   1.750000E-02   1.750000E-02   1.750000E-02   1.750000E-02   1.750000E-02   1.750000E-02   1.750000E-02   1.750000E-02   1.750000E-02   1.750000E-02   1.750000E-02   1.750000E-02   1.750000E-02   1.750000E-02   1.750000E-02   1.750000E-02   1.750000E-02   1.750000E-02   1.750000E-02   1.750000E-02   1.750000E-02   1.750000E-02   1.750000E-02   1.750000E-02   1.750000E-02   1.750000E-02   1.750000E-02   1.750000E-02   1.750000E-02   1.750000E-02   1.750000E-02   1.750000E-02   1.750000E-02   1.750000E-02   1.750000E-02   1.750000E-02   1.750000E-02   1.750000E-02   1.750000E-02   1.750000E-02   1.750000E-02   1.750000E-02   1.750000E-02   1.750000E-02   1.750000E-02   1.750000E-02   1.750000E-02   1.750000E-02   1.750000E-02   1.750000E-02   1.750000E-02   1.750000E-02   1.750000E-02   1.750000E-02   1.750000E-02   1.750000E-02   1.750000E-02   1.750000E-02   1.750000E-02   1.750000E-02   1.750000E-02   1.750000E-02   1.750000E-02   1.750000E-02   1.750000E-02   1.750000E-02   1.750000E-02   1.750000E-02   1.750000E-02   1.750000E-02   1.750000E-02   1.750000E-02   1.750000E-02   1.750000E-02   1.750000E-02   1.750000E-02   1.750000E-02   1.750000E-02   1.750000E-02   1.750000E-02   1.750000E-02   1.750000E-02   1.750000E-02   1.750000E-02   1.750000E-02   1.750000E-02   1.750000E-02   1.750000E-02   1.750000E-02   1.750000E-02   1.750000E-02   1.750000E-02   1.750000E-02   1.750000E-02   1.750000E-02   1.750000E-02   1.750000E-02   1.750000E-02   1.750000E-02   1.750000E-02   1.750000E-02   1.750000E-02   1.750000E-02   1.750000E-02   1.750000E-02
   1.750000E-02   1.750000E-02   1.750000E-02   1.750000E-02   1.750000E-02   1.750000E-02   1.750000E-02   1.750000E-02   1.750000E-02   1.750000E-02   1.750000E-02   1.750000E-02   1.750000E-02   1.750000E-02   1.750000E-02   1.750000E-02   1.750000E-02   1.750000E-02   1.750000E-02   1.750000E-02   1.750000E-02   1.750000E-02   1.750000E-02   1.750000E-02   1.750000E-02   1.750000E-02   1.750000E-02   1.750000E-02   1.750000E-02   1.750000E-02   1.750000E-02   1.750000E-02   1.750000E-02   1.750000E-02   1.750000E-02   1.750000E-02   1.750000E-02   1.750000E-02   1.750000E-02   1.750000E-02   1.750000E-02   1.750000E-02   1.750000E-02   1.750000E-02   1.750000E-02   1.750000E-02   1.750000E-02   1.750000E-02   1.750000E-02   1.750000E-02   1.750000E-02   1.750000E-02   1.750000E-02   1.750000E-02   1.750000E-02   1.750000E-02   1.750000E-02   1.750000E-02   1.750000E-02   1.750000E-02   1.750000E-02   1.750000E-02   1.750000E-02   1.750000E-02   1.750000E-02   1.750000E-02   1.750000E-02   1.750000E-02   1.750000E-02   1.750000E-02   1.750000E-02   1.750000E-02   1.750000E-02   1.750000E-02   1.750000E-02   1.750000E-02   1.750000E-02   1.750000E-02   1.750000E-02   1.750000E-02   1.750000E-02   1.750000E-02   1.750000E-02   1.750000E-02   1.750000E-02   1.750000E-02   1.750000E-02   1.750000E-02   1.750000E-02   1.750000E-02   1.750000E-02   1.750000E-02   1.750000E-02   1.750000E-02   1.750000E-02   1.750000E-02   1.750000E-02   1.750000E-02   1.750000E-02   1.750000E-02   1.750000E-02   1.750000E-02   1.750000E-02   1.750000E-02   1.750000E-02   1.750000E-02   1.750000E-02   1.750000E-02   1.750000E-02   1.750000E-02   1.750000E-02   1.750000E-02   1.750000E-02   1.750000E-02   1.750000E-02   1.750000E-02   1.750000E-02   1.750000E-02   1.750000E-02   1.750000E-02   1.750000E-02   1.750000E-02   1.750000E-02   1.750000E-02   1.750000E-02   1.750000E-02   1.750000E-02   1.750000E-02   1.750000E-02   1.750000E-02   1.750000E-02   1.750000E-02   1.750000E-02   1.750000E-02   1.750000E-02   1.750000E-02   1.750000E-02   1.750000E-02   1.750000E-02   1.750000E-02   1.750000E-02   1.750000E-02   1.750000E-02   1.750000E-02   1.750000E-02   1.750000E-02   1.750000E-02   1.750000E-02   1.750000E-02
   1.750000E-02   1.750000E-02   1.750000E-02   1.750000E-02   1.750000E-02   1.750000E-02   1.750000E-02   1.750000E-02   1.750000E-02   1.750000E-02   1.750000E-02   1.750000E-02   1.750000E-02   1.750000E-02   1.750000E-02   1.750000E-02   1.750000E-02   1.750000E-02   1.750000E-02   1.750000E-02   1.750000E-02   1.750000E-02   1.750000E-02   1.750000E-02   1.750000E-02   1.750000E-02   1.750000E-02   1.750000E-02   1.750000E-02   1.750000E-02   1.750000E-02   1.750000E-02   1.750000E-02   1.750000E-02   1.750000E-02   1.750000E-02   1.750000E-02   1.750000E-02   1.750000E-02   1.750000E-02   1.750000E-02   1.750000E-02   1.750000E-02   1.750000E-02   1.750000E-02   1.750000E-02   1.750000E-02   1.750000E-02   1.750000E-02   1.750000E-02   1.750000E-02   1.750000E-02   1.750000E-02   1.750000E-02   1.750000E-02   1.750000E-02   1.750000E-02   1.750000E-02   1.750000E-02   1.750000E-02   1.750000E-02   1.750000E-02   1.750000E-02   1.750000E-02   1.750000E-02   1.750000E-02   1.750000E-02   1.750000E-02   1.750000E-02   1.750000E-02   1.750000E-02   1.750000E-02   1.750000E-02   1.750000E-02   1.750000E-02   1.750000E-02   1.750000E-02   1.750000E-02   1.750000E-02   1.750000E-02   1.750000E-02   1.750000E-02   1.750000E-02   1.750000E-02   1.750000E-02   1.750000E-02   1.750000E-02   1.750000E-02   1.750000E-02   1.750000E-02   1.750000E-02   1.750000E-02   1.750000E-02   1.750000E-02   1.750000E-02   1.750000E-02   1.750000E-02   1.750000E-02   1.750000E-02   1.750000E-02   1.750000E-02   1.750000E-02   1.750000E-02   1.750000E-02   1.750000E-02   1.750000E-02   1.750000E-02   1.750000E-02   1.750000E-02   1.750000E-02   1.750000E-02   1.750000E-02   1.750000E-02   1.750000E-02   1.750000E-02   1.750000E-02   1.750000E-02   1.750000E-02   1.750000E-02   1.750000E-02   1.750000E-02   1.750000E-02   1.750000E-02   1.750000E-02   1.750000E-02   1.750000E-02   1.750000E-02   1.750000E-02   1.750000E-02   1.750000E-02   1.750000E-02   1.750000E-02   1.750000E-02   1.750000E-02   1.750000E-02   1.750000E-02   1.750000E-02   1.750000E-02   1.750000E-02   1.750000E-02   1.750000E-02   1.750000E-02   1.750000E-02   1.750000E-02   1.750000E-02   1.750000E-02   1.750000E-02   1.750000E-02   1.750000E-02
   1.750000E-02   1.750000E-02   1.750000E-02   1.750000E-02   1.750000E-02   1.750000E-02   1.750000E-02   1.750000E-02   1.750000E-02   1.750000E-02   1.750000E-02   1.750000E-02   1.750000E-02   1.750000E-02   1.750000E-02   1.750000E-02   1.750000E-02   1.750000E-02   1.750000E-02   1.750000E-02   1.750000E-02   1.750000E-02   1.750000E-02   1.750000E-02   1.750000E-02   1.750000E-02   1.750000E-02   1.750000E-02   1.750000E-02   1.750000E-02   1.750000E-02   1.750000E-02   1.750000E-02   1.750000E-02   1.750000E-02   1.750000E-02   1.750000E-02   1.750000E-02   1.750000E-02   1.750000E-02   1.750000E-02   1.750000E-02   1.750000E-02   1.750000E-02   1.750000E-02   1.750000E-02   1.750000E-02   1.750000E-02   1.750000E-02   1.750000E-02   1.750000E-02   1.750000E-02   1.750000E-02   1.750000E-02   1.750000E-02   1.750000E-02   1.750000E-02   1.750000E-02   1.750000E-02   1.750000E-02   1.750000E-02   1.750000E-02   1.750000E-02   1.750000E-02   1.750000E-02   1.750000E-02   1.750000E-02   1.750000E-02   1.750000E-02   1.750000E-02   1.750000E-02   1.750000E-02   1.750000E-02   1.750000E-02   1.750000E-02   1.750000E-02   1.750000E-02   1.750000E-02   1.750000E-02   1.750000E-02   1.750000E-02   1.750000E-02   1.750000E-02   1.750000E-02   1.750000E-02   1.750000E-02   1.750000E-02   1.750000E-02   1.750000E-02   1.750000E-02   1.750000E-02   1.750000E-02   1.750000E-02   1.750000E-02   1.750000E-02   1.750000E-02   1.750000E-02   1.750000E-02   1.750000E-02   1.750000E-02   1.750000E-02   1.750000E-02   1.750000E-02   1.750000E-02   1.750000E-02   1.750000E-02   1.750000E-02   1.750000E-02   1.750000E-02   1.750000E-02   1.750000E-02   1.750000E-02   1.750000E-02   1.750000E-02   1.750000E-02   1.750000E-02   1.750000E-02   1.750000E-02   1.750000E-02   1.750000E-02   1.750000E-02   1.750000E-02   1.750000E-02   1.750000E-02   1.750000E-02   1.750000E-02   1.750000E-02   1.750000E-02   1.750000E-02   1.750000E-02   1.750000E-02   1.750000E-02   1.750000E-02   1.750000E-02   1.750000E-02   1.750000E-02   1.750000E-02   1.750000E-02   1.750000E-02   1.750000E-02   1.750000E-02   1.750000E-02   1.750000E-02   1.750000E-02   1.750000E-02   1.750000E-02   1.750000E-02   1.750000E-02   1.750000E-02
   1.750000E-02   1.750000E-02   1.750000E-02   1.750000E-02   1.750000E-02   1.750000E-02   1.750000E-02   1.750000E-02   1.750000E-02   1.750000E-02   1.750000E-02   1.750000E-02   1.750000E-02   1.750000E-02   1.750000E-02   1.750000E-02   1.750000E-02   1.750000E-02   1.750000E-02   1.750000E-02   1.750000E-02   1.750000E-02   1.750000E-02   1.750000E-02   1.750000E-02   1.750000E-02   1.750000E-02   1.750000E-02   1.750000E-02   1.750000E-02   1.750000E-02   1.750000E-02   1.750000E-02   1.750000E-02   1.750000E-02   1.750000E-02   1.750000E-02   1.750000E-02   1.750000E-02   1.750000E-02   1.750000E-02   1.750000E-02   1.750000E-02   1.750000E-02   1.750000E-02   1.750000E-02   1.750000E-02   1.750000E-02   1.750000E-02   1.750000E-02   1.750000E-02   1.750000E-02   1.750000E-02   1.750000E-02   1.750000E-02   1.750000E-02   1.750000E-02   1.750000E-02   1.750000E-02   1.750000E-02   1.750000E-02   1.750000E-02   1.750000E-02   1.750000E-02   1.750000E-02   1.750000E-02   1.750000E-02   1.750000E-02   1.750000E-02   1.750000E-02   1.750000E-02   1.750000E-02   1.750000E-02   1.750000E-02   1.750000E-02   1.750000E-02   1.750000E-02   1.750000E-02   1.750000E-02   1.750000E-02   1.750000E-02   1.750000E-02   1.750000E-02   1.750000E-02   1.750000E-02   1.750000E-02   1.750000E-02   1.750000E-02   1.750000E-02   1.750000E-02   1.750000E-02   1.750000E-02   1.750000E-02   1.750000E-02   1.750000E-02   1.750000E-02   1.750000E-02   1.750000E-02   1.750000E-02   1.750000E-02   1.750000E-02   1.750000E-02   1.750000E-02   1.750000E-02   1.750000E-02   1.750000E-02   1.750000E-02   1.750000E-02   1.750000E-02   1.750000E-02   1.750000E-02   1.750000E-02   1.750000E-02   1.750000E-02   1.750000E-02   1.750000E-02   1.750000E-02   1.750000E-02   1.750000E-02   1.750000E-02   1.750000E-02   1.750000E-02   1.750000E-02   1.750000E-02   1.750000E-02   1.750000E-02   1.750000E-02   1.750000E-02   1.750000E-02   1.750000E-02   1.750000E-02   1.750000E-02   1.750000E-02   1.750000E-02   1.750000E-02   1.750000E-02   1.750000E-02   1.750000E-02   1.750000E-02   1.750000E-02   1.750000E-02   1.750000E-02   1.750000E-02   1.750000E-02   1.750000E-02   1.750000E-02   1.750000E-02   1.750000E-02   1.750000E-02