# SFR package for MODFLOW-NWT generated by Flopy 3.4.3
OPTIONS
REACHINPUT
END
231 28 0 0 86400.00000000 0.00010000 0 0 1 
1 123 47 1 1 2151.2495 3462.1682 0.049750708 1.0 0.1
1 122 47 1 2 300.0 3355.1418 0.24708161 1.0 0.1
1 121 47 1 3 362.13205 3281.0176 0.20729917 1.0 0.1
1 120 46 1 4 362.13205 3205.9478 0.14786303 1.0 0.1
1 120 45 1 5 362.13205 3152.4019 0.09325642 1.0 0.1
1 119 44 1 6 424.26407 3118.6306 0.120658115 1.0 0.1
1 118 43 1 7 424.26407 3067.4397 0.07406839 1.0 0.1
1 117 42 1 8 362.13205 3036.0151 0.121494606 1.0 0.1
1 116 42 1 9 300.0 2992.018 0.20377146 1.0 0.1
1 115 42 1 10 300.0 2930.8867 0.1424619 1.0 0.1
1 114 42 1 11 300.0 2888.1482 0.044190902 1.0 0.1
1 113 42 1 12 362.13205 2874.8909 0.05115545 1.0 0.1
1 112 43 1 13 424.26407 2856.366 0.04366383 1.0 0.1
1 111 44 1 14 212.13203 2837.8408 0.001 1.0 0.1
1 119 55 2 1 547.54224 3154.2422 0.10749793 1.0 0.1
1 118 54 2 2 212.13203 3095.3826 0.001 1.0 0.1
1 117 74 3 1 3212.132 4383.1597 0.009299276 1.0 0.1
1 118 73 3 2 362.13205 4353.289 0.03948726 1.0 0.1
1 119 73 3 3 300.0 4338.9893 0.07753956 1.0 0.1
1 120 73 3 4 362.13205 4315.7275 0.13480589 1.0 0.1
1 121 72 3 5 362.13205 4266.91 0.13623266 1.0 0.1
1 121 71 3 6 362.13205 4217.5757 0.46678513 1.0 0.1
1 122 70 3 7 362.13205 4048.5378 0.16634725 1.0 0.1
1 122 69 3 8 300.0 3988.2983 0.23759116 1.0 0.1
1 122 68 3 9 300.0 3917.021 0.3636891 1.0 0.1
1 122 67 3 10 300.0 3807.914 0.20234635 1.0 0.1
1 122 66 3 11 362.13205 3747.2102 0.07619419 1.0 0.1
1 121 65 3 12 362.13205 3719.618 0.13171797 1.0 0.1
1 121 64 3 13 362.13205 3671.9187 0.036194667 1.0 0.1
1 120 63 3 14 362.13205 3658.8113 0.1408774 1.0 0.1
1 120 62 3 15 300.0 3607.7952 0.1495729 1.0 0.1
1 120 61 3 16 300.0 3562.9233 0.16325879 1.0 0.1
1 120 60 3 17 300.0 3513.9456 0.117999725 1.0 0.1
1 120 59 3 18 300.0 3478.5457 0.47530356 1.0 0.1
1 120 58 3 19 300.0 3335.9546 0.33019987 1.0 0.1
1 120 57 3 20 362.13205 3236.8948 0.13876256 1.0 0.1
1 119 56 3 21 424.26407 3186.6443 0.12689646 1.0 0.1
1 118 55 3 22 212.13203 3132.8066 0.001 1.0 0.1
1 117 54 4 1 2405.2473 3046.32 0.017771143 1.0 0.1
1 116 53 4 2 362.13205 3003.576 0.0698494 1.0 0.1
1 115 53 4 3 362.13205 2978.2812 0.060502924 1.0 0.1
1 114 52 4 4 424.26407 2956.3713 0.06753057 1.0 0.1
1 113 51 4 5 362.13205 2927.7205 0.05952736 1.0 0.1
1 113 50 4 6 362.13205 2906.1636 0.05122707 1.0 0.1
1 112 49 4 7 424.26407 2887.6128 0.046581548 1.0 0.1
1 111 48 4 8 362.13205 2867.8499 0.032760367 1.0 0.1
1 111 47 4 9 300.0 2855.9863 0.043606613 1.0 0.1
1 111 46 4 10 300.0 2842.9043 0.025637865 1.0 0.1
1 111 45 4 11 150.0 2835.213 0.001 1.0 0.1
1 110 44 5 1 1262.1321 2824.7417 0.010525515 1.0 0.1
1 109 44 5 2 300.0 2811.457 0.046657227 1.0 0.1
1 108 44 5 3 300.0 2797.46 0.044545986 1.0 0.1
1 107 44 5 4 300.0 2784.0962 0.04430696 1.0 0.1
1 106 44 5 5 150.0 2770.804 0.001 1.0 0.1
1 106 43 6 1 212.13203 2775.4749 0.001 1.0 0.1
1 105 44 7 1 2868.8228 2756.9497 0.0064573716 1.0 0.1
1 104 45 7 2 424.26407 2738.4246 0.043661 1.0 0.1
1 103 46 7 3 362.13205 2719.901 0.038346022 1.0 0.1
1 102 46 7 4 362.13205 2706.0146 0.049025577 1.0 0.1
1 101 47 7 5 362.13205 2688.2607 0.036182445 1.0 0.1
1 100 47 7 6 300.0 2675.158 0.04366436 1.0 0.1
1 99 47 7 7 362.13205 2662.0586 0.044446386 1.0 0.1
1 98 48 7 8 362.13205 2645.9631 0.03612637 1.0 0.1
1 97 48 7 9 300.0 2632.8806 0.04345152 1.0 0.1
1 96 48 7 10 300.0 2619.8452 0.04372972 1.0 0.1
1 95 48 7 11 300.0 2606.7263 0.043667894 1.0 0.1
1 94 48 7 12 300.0 2593.626 0.043922313 1.0 0.1
1 93 48 7 13 300.0 2580.4492 0.043646615 1.0 0.1
1 92 48 7 14 362.13205 2567.3552 0.05127234 1.0 0.1
1 91 47 7 15 212.13203 2548.7878 0.001 1.0 0.1
1 99 62 8 1 914.8529 3457.0876 0.06518375 1.0 0.1
1 98 62 8 2 362.13205 3397.454 0.10757786 1.0 0.1
1 97 63 8 3 424.26407 3358.4968 0.07244353 1.0 0.1
1 96 62 8 4 362.13205 3327.7615 0.22065109 1.0 0.1
1 95 62 8 5 150.0 3247.8567 0.001 1.0 0.1
1 97 66 9 1 848.52814 3521.654 0.05476366 1.0 0.1
1 96 65 9 2 424.26407 3475.1855 0.3768935 1.0 0.1
1 95 64 9 3 212.13203 3315.2832 0.001 1.0 0.1
1 94 63 10 1 874.2641 3167.6416 0.094624236 1.0 0.1
1 93 63 10 2 150.0 3084.915 0.001 1.0 0.1
1 92 39 11 1 1242.0165 2947.0842 0.045410573 1.0 0.1
1 91 39 11 2 362.13205 2890.6836 0.39534742 1.0 0.1
1 90 40 11 3 362.13205 2747.5156 0.10409092 1.0 0.1
1 89 40 11 4 362.13205 2709.8208 0.46439645 1.0 0.1
1 88 41 11 5 362.13205 2541.648 0.21460395 1.0 0.1
1 87 41 11 6 300.0 2463.933 0.043663852 1.0 0.1
1 86 41 11 7 150.0 2450.834 0.001 1.0 0.1
1 87 70 12 1 1440.3488 3364.1047 0.02361754 1.0 0.1
1 87 69 12 2 362.13205 3330.0872 0.15097353 1.0 0.1
1 88 68 12 3 424.26407 3275.4148 0.21017486 1.0 0.1
1 89 67 12 4 424.26407 3186.245 0.10833267 1.0 0.1
1 90 66 12 5 424.26407 3140.2834 0.11584594 1.0 0.1
1 91 65 12 6 424.26407 3091.1343 0.071902975 1.0 0.1
1 92 64 12 7 212.13203 3060.6284 0.001 1.0 0.1
1 85 29 13 1 1689.4607 2949.8503 0.03568396 1.0 0.1
1 84 30 13 2 424.26407 2889.5637 0.2133682 1.0 0.1
1 83 31 13 3 424.26407 2799.0393 0.21227777 1.0 0.1
1 82 32 13 4 424.26407 2708.9773 0.27661607 1.0 0.1
1 81 33 13 5 424.26407 2591.6191 0.4489143 1.0 0.1
1 80 34 13 6 362.13205 2401.161 0.18630028 1.0 0.1
1 79 34 13 7 300.0 2333.6956 0.085653715 1.0 0.1
1 78 34 13 8 362.13205 2307.9995 0.05155914 1.0 0.1
1 77 33 13 9 212.13203 2289.3284 0.001 1.0 0.1
1 83 66 14 1 1635.157 3413.1902 0.033202335 1.0 0.1
1 84 67 14 2 424.26407 3358.8992 0.0951474 1.0 0.1
1 85 68 14 3 362.13205 3318.5315 0.03531489 1.0 0.1
1 86 68 14 4 362.13205 3305.743 0.13696803 1.0 0.1
1 87 67 14 5 362.13205 3256.1423 0.10784768 1.0 0.1
1 88 67 14 6 362.13205 3217.0872 0.13982645 1.0 0.1
1 89 66 14 7 424.26407 3166.4517 0.11506313 1.0 0.1
1 90 65 14 8 424.26407 3117.6345 0.09851594 1.0 0.1
1 91 64 14 9 212.13203 3075.8376 0.001 1.0 0.1
1 92 63 15 1 3080.8093 3040.0574 0.00030689948 1.0 0.1
1 92 62 15 2 300.0 3039.1118 1e-04 1.0 0.1
1 92 61 15 3 362.13205 3039.1118 1e-04 1.0 0.1
1 91 60 15 4 362.13205 3039.4312 0.20389977 1.0 0.1
1 91 59 15 5 300.0 2965.5925 0.12686093 1.0 0.1
1 91 58 15 6 300.0 2927.5342 0.03911296 1.0 0.1
1 91 57 15 7 300.0 2915.8003 0.14600879 1.0 0.1
1 91 56 15 8 300.0 2871.9978 1e-04 1.0 0.1
1 91 55 15 9 362.13205 2871.9978 0.12045244 1.0 0.1
1 92 54 15 10 362.13205 2828.378 0.21521153 1.0 0.1
1 92 53 15 11 300.0 2750.443 0.045739174 1.0 0.1
1 92 52 15 12 300.0 2736.7212 0.10349217 1.0 0.1
1 92 51 15 13 300.0 2705.6736 0.2961869 1.0 0.1
1 92 50 15 14 300.0 2616.8176 0.12819299 1.0 0.1
1 92 49 15 15 362.13205 2578.3596 0.051307186 1.0 0.1
1 91 48 15 16 212.13203 2559.7798 0.001 1.0 0.1
1 90 47 16 1 574.2641 2541.257 0.001 1.0 0.1
1 75 56 17 1 2792.8296 3241.1025 0.017050395 1.0 0.1
1 76 55 17 2 362.13205 3193.4836 0.050150085 1.0 0.1
1 77 55 17 3 300.0 3175.3228 0.043688633 1.0 0.1
1 78 55 17 4 362.13205 3162.216 0.030343672 1.0 0.1
1 79 54 17 5 362.13205 3151.2278 0.051032376 1.0 0.1
1 80 54 17 6 300.0 3132.7473 0.07786689 1.0 0.1
1 81 54 17 7 362.13205 3109.3872 0.12916411 1.0 0.1
1 82 53 17 8 362.13205 3062.6128 0.06568569 1.0 0.1
1 83 53 17 9 300.0 3038.826 0.10904505 1.0 0.1
1 84 53 17 10 300.0 3006.1123 0.12369192 1.0 0.1
1 85 53 17 11 300.0 2969.0046 0.06160103 1.0 0.1
1 86 53 17 12 362.13205 2950.5244 0.07865624 1.0 0.1
1 87 52 17 13 362.13205 2922.0405 0.12541386 1.0 0.1
1 88 52 17 14 362.13205 2876.624 0.22626731 1.0 0.1
1 89 51 17 15 362.13205 2794.6855 0.24071981 1.0 0.1
1 89 50 17 16 300.0 2707.5132 0.43055442 1.0 0.1
1 89 49 17 17 300.0 2578.3467 0.097489364 1.0 0.1
1 89 48 17 18 300.0 2549.1 0.043663874 1.0 0.1
1 89 47 17 19 150.0 2536.0007 0.001 1.0 0.1
1 89 46 18 1 1534.7327 2522.7317 0.012070348 1.0 0.1
1 88 45 18 2 424.26407 2504.207 0.04366989 1.0 0.1
1 87 44 18 3 424.26407 2485.6794 0.043296 1.0 0.1
1 86 43 18 4 362.13205 2467.3105 0.030688887 1.0 0.1
1 86 42 18 5 150.0 2456.197 0.001 1.0 0.1
1 85 41 19 1 2380.5032 2437.6729 0.007781509 1.0 0.1
1 84 40 19 2 424.26407 2419.149 0.04366229 1.0 0.1
1 83 39 19 3 424.26407 2400.6248 0.043664496 1.0 0.1
1 82 38 19 4 424.26407 2382.0994 0.043663837 1.0 0.1
1 81 37 19 5 362.13205 2363.5745 0.036175743 1.0 0.1
1 80 37 19 6 362.13205 2350.474 0.051159605 1.0 0.1
1 79 36 19 7 424.26407 2331.9475 0.043655228 1.0 0.1
1 78 35 19 8 424.26407 2313.426 0.043669023 1.0 0.1
1 77 34 19 9 212.13203 2294.899 0.001 1.0 0.1
1 76 33 20 1 1534.7327 2276.3792 0.009725972 1.0 0.1
1 75 32 20 2 424.26407 2261.4524 0.028418664 1.0 0.1
1 74 31 20 3 424.26407 2249.3953 0.08497415 1.0 0.1
1 73 30 20 4 362.13205 2213.344 0.0336992 1.0 0.1
1 73 29 20 5 150.0 2201.1404 0.001 1.0 0.1
1 63 48 21 1 450.0 3066.4497 0.028995646 1.0 0.1
1 63 47 21 2 150.0 3053.4016 0.001 1.0 0.1
1 58 48 22 1 957.7747 3168.6685 0.020206574 1.0 0.1
1 59 48 22 2 300.0 3149.315 0.11021026 1.0 0.1
1 60 48 22 3 300.0 3116.252 0.12671785 1.0 0.1
1 61 48 22 4 362.13205 3078.2366 0.05378652 1.0 0.1
1 62 47 22 5 212.13203 3058.7588 0.001 1.0 0.1
1 63 46 23 1 2222.3953 3040.2432 0.006031601 1.0 0.1
1 63 45 23 2 362.13205 3026.8386 0.05108189 1.0 0.1
1 64 44 23 3 362.13205 3008.3403 0.036176056 1.0 0.1
1 64 43 23 4 300.0 2995.2397 0.045263853 1.0 0.1
1 64 42 23 5 300.0 2981.6606 0.036005255 1.0 0.1
1 64 41 23 6 362.13205 2970.859 0.064109206 1.0 0.1
1 63 40 23 7 424.26407 2947.643 0.09676341 1.0 0.1
1 62 39 23 8 424.26407 2906.5898 0.16191632 1.0 0.1
1 63 38 23 9 424.26407 2837.8945 0.07759268 1.0 0.1
1 64 37 23 10 424.26407 2804.9746 0.3370944 1.0 0.1
1 65 36 23 11 212.13203 2661.9575 0.001 1.0 0.1
1 55 35 24 1 768.4658 2953.5278 0.017045863 1.0 0.1
1 56 35 24 2 300.0 2940.4287 0.043663878 1.0 0.1
1 57 35 24 3 300.0 2927.3296 0.043663885 1.0 0.1
1 58 35 24 4 150.0 2914.2305 0.001 1.0 0.1
1 34 32 25 1 3947.6968 3288.206 0.006496607 1.0 0.1
1 35 32 25 2 300.0 3262.5593 0.12992421 1.0 0.1
1 36 32 25 3 362.13205 3223.582 0.064665884 1.0 0.1
1 37 33 25 4 362.13205 3200.1646 0.036282215 1.0 0.1
1 38 33 25 5 362.13205 3187.0256 0.051045563 1.0 0.1
1 39 34 25 6 424.26407 3168.5403 0.043663852 1.0 0.1
1 40 35 25 7 424.26407 3150.0154 0.043671224 1.0 0.1
1 41 36 25 8 362.13205 3131.4873 0.03617966 1.0 0.1
1 42 36 25 9 300.0 3118.3855 0.04366306 1.0 0.1
1 43 36 25 10 300.0 3105.2866 0.04365974 1.0 0.1
1 44 36 25 11 300.0 3092.1885 0.043672204 1.0 0.1
1 45 36 25 12 300.0 3079.087 0.043668557 1.0 0.1
1 46 36 25 13 300.0 3065.9863 0.044292297 1.0 0.1
1 47 36 25 14 300.0 3052.6987 0.042962767 1.0 0.1
1 48 36 25 15 300.0 3039.8098 0.04368382 1.0 0.1
1 49 36 25 16 300.0 3026.7046 0.043685127 1.0 0.1
1 50 36 25 17 300.0 3013.599 0.043663114 1.0 0.1
1 51 36 25 18 300.0 3000.5002 0.04366565 1.0 0.1
1 52 36 25 19 300.0 2987.4006 0.04366437 1.0 0.1
1 53 36 25 20 300.0 2974.3013 0.04366164 1.0 0.1
1 54 36 25 21 300.0 2961.2026 0.043665238 1.0 0.1
1 55 36 25 22 300.0 2948.1033 0.04366364 1.0 0.1
1 56 36 25 23 300.0 2935.0042 0.043663077 1.0 0.1
1 57 36 25 24 300.0 2921.905 0.043663032 1.0 0.1
1 58 36 25 25 150.0 2908.8062 0.001 1.0 0.1
1 59 36 26 1 1572.7922 2895.7068 0.008328623 1.0 0.1
1 60 36 26 2 362.13205 2882.6074 0.05521677 1.0 0.1
1 61 37 26 3 424.26407 2862.6118 0.014722234 1.0 0.1
1 62 36 26 4 362.13205 2856.3657 0.12164571 1.0 0.1
1 63 36 26 5 362.13205 2812.3137 0.10726942 1.0 0.1
1 64 35 26 6 362.13205 2773.468 0.40722454 1.0 0.1
1 65 35 26 7 150.0 2625.999 0.001 1.0 0.1
1 66 35 27 1 1957.1957 2594.3833 0.009464348 1.0 0.1
1 67 34 27 2 424.26407 2575.8596 0.100656 1.0 0.1
1 68 33 27 3 424.26407 2533.1548 0.3574646 1.0 0.1
1 69 32 27 4 424.26407 2381.4956 0.122225404 1.0 0.1
1 70 31 27 5 362.13205 2329.6396 0.18713897 1.0 0.1
1 71 31 27 6 362.13205 2261.8706 0.13473335 1.0 0.1
1 72 30 27 7 362.13205 2213.0793 0.03854668 1.0 0.1
1 72 29 27 8 150.0 2199.1204 0.001 1.0 0.1
1 72 28 28 1 520.7923 2188.9353 1e-04 1.0 0.1
1 72 27 28 2 150.0 2188.9353 0.001 1.0 0.1
28 0 0
1 1 5 0 1.0 0 0 0 0.04 
10.0 
10.0 
2 1 4 0 1.0 0 0 0 0.04 
10.0 
10.0 
3 1 4 0 1.0 0 0 0 0.04 
10.0 
10.0 
4 1 5 0 1.0 0 0 0 0.04 
10.0 
10.0 
5 1 7 0 1.0 0 0 0 0.04 
10.0 
10.0 
6 1 7 0 1.0 0 0 0 0.04 
10.0 
10.0 
7 1 16 0 1.0 0 0 0 0.04 
10.0 
10.0 
8 1 10 0 1.0 0 0 0 0.04 
10.0 
10.0 
9 1 10 0 1.0 0 0 0 0.04 
10.0 
10.0 
10 1 15 0 1.0 0 0 0 0.04 
10.0 
10.0 
11 1 19 0 1.0 0 0 0 0.04 
10.0 
10.0 
12 1 15 0 1.0 0 0 0 0.04 
10.0 
10.0 
13 1 20 0 1.0 0 0 0 0.04 
10.0 
10.0 
14 1 15 0 1.0 0 0 0 0.04 
10.0 
10.0 
15 1 16 0 1.0 0 0 0 0.04 
10.0 
10.0 
16 1 18 0 1.0 0 0 0 0.04 
10.0 
10.0 
17 1 18 0 1.0 0 0 0 0.04 
10.0 
10.0 
18 1 19 0 1.0 0 0 0 0.04 
10.0 
10.0 
19 1 20 0 1.0 0 0 0 0.04 
10.0 
10.0 
20 1 28 0 1.0 0 0 0 0.04 
10.0 
10.0 
21 1 23 0 1.0 0 0 0 0.04 
10.0 
10.0 
22 1 23 0 1.0 0 0 0 0.04 
10.0 
10.0 
23 1 27 0 1.0 0 0 0 0.04 
10.0 
10.0 
24 1 26 0 1.0 0 0 0 0.04 
10.0 
10.0 
25 1 26 0 1.0 0 0 0 0.04 
10.0 
10.0 
26 1 27 0 1.0 0 0 0 0.04 
10.0 
10.0 
27 1 28 0 1.0 0 0 0 0.04 
10.0 
10.0 
28 1 0 0 1.0 0 0 0 0.04 
10.0 
10.0 
-28 0 0
-28 0 0
-28 0 0
-28 0 0
-28 0 0
-28 0 0
-28 0 0
-28 0 0
-28 0 0
-28 0 0
-28 0 0
-28 0 0
-28 0 0
-28 0 0
-28 0 0
-28 0 0
-28 0 0
-28 0 0
-28 0 0
-28 0 0
-28 0 0
-28 0 0
-28 0 0
-28 0 0
-28 0 0
-28 0 0
-28 0 0
-28 0 0
-28 0 0
-28 0 0
-28 0 0
-28 0 0
-28 0 0
-28 0 0
-28 0 0
-28 0 0
-28 0 0
-28 0 0
-28 0 0
-28 0 0
-28 0 0
-28 0 0
-28 0 0
-28 0 0
-28 0 0
-28 0 0
-28 0 0
-28 0 0
-28 0 0
-28 0 0
-28 0 0
-28 0 0
-28 0 0
-28 0 0
-28 0 0
-28 0 0
-28 0 0
-28 0 0
-28 0 0
-28 0 0
-28 0 0
-28 0 0
-28 0 0
-28 0 0
-28 0 0
-28 0 0
-28 0 0
-28 0 0
-28 0 0
-28 0 0
-28 0 0
-28 0 0
-28 0 0
-28 0 0
-28 0 0
-28 0 0
-28 0 0
-28 0 0
-28 0 0
-28 0 0
-28 0 0
-28 0 0
-28 0 0
-28 0 0
-28 0 0
-28 0 0
-28 0 0
-28 0 0
-28 0 0
-28 0 0
-28 0 0
-28 0 0
-28 0 0
-28 0 0
-28 0 0
-28 0 0
-28 0 0
-28 0 0
-28 0 0
-28 0 0
-28 0 0
-28 0 0
-28 0 0
-28 0 0
-28 0 0
-28 0 0
-28 0 0
-28 0 0
-28 0 0
-28 0 0
-28 0 0
-28 0 0
-28 0 0
-28 0 0
-28 0 0
-28 0 0
-28 0 0
-28 0 0
-28 0 0
