# DIS package for MODFLOW-NWT generated by Flopy 3.4.3
         1       160       104       120         4         2
  0
INTERNAL               1 (104E15.6) -1 #delr                          
   3.000000E+02   3.000000E+02   3.000000E+02   3.000000E+02   3.000000E+02   3.000000E+02   3.000000E+02   3.000000E+02   3.000000E+02   3.000000E+02   3.000000E+02   3.000000E+02   3.000000E+02   3.000000E+02   3.000000E+02   3.000000E+02   3.000000E+02   3.000000E+02   3.000000E+02   3.000000E+02   3.000000E+02   3.000000E+02   3.000000E+02   3.000000E+02   3.000000E+02   3.000000E+02   3.000000E+02   3.000000E+02   3.000000E+02   3.000000E+02   3.000000E+02   3.000000E+02   3.000000E+02   3.000000E+02   3.000000E+02   3.000000E+02   3.000000E+02   3.000000E+02   3.000000E+02   3.000000E+02   3.000000E+02   3.000000E+02   3.000000E+02   3.000000E+02   3.000000E+02   3.000000E+02   3.000000E+02   3.000000E+02   3.000000E+02   3.000000E+02   3.000000E+02   3.000000E+02   3.000000E+02   3.000000E+02   3.000000E+02   3.000000E+02   3.000000E+02   3.000000E+02   3.000000E+02   3.000000E+02   3.000000E+02   3.000000E+02   3.000000E+02   3.000000E+02   3.000000E+02   3.000000E+02   3.000000E+02   3.000000E+02   3.000000E+02   3.000000E+02   3.000000E+02   3.000000E+02   3.000000E+02   3.000000E+02   3.000000E+02   3.000000E+02   3.000000E+02   3.000000E+02   3.000000E+02   3.000000E+02   3.000000E+02   3.000000E+02   3.000000E+02   3.000000E+02   3.000000E+02   3.000000E+02   3.000000E+02   3.000000E+02   3.000000E+02   3.000000E+02   3.000000E+02   3.000000E+02   3.000000E+02   3.000000E+02   3.000000E+02   3.000000E+02   3.000000E+02   3.000000E+02   3.000000E+02   3.000000E+02   3.000000E+02   3.000000E+02   3.000000E+02   3.000000E+02
INTERNAL               1 (160E15.6) -1 #delc                          
   3.000000E+02   3.000000E+02   3.000000E+02   3.000000E+02   3.000000E+02   3.000000E+02   3.000000E+02   3.000000E+02   3.000000E+02   3.000000E+02   3.000000E+02   3.000000E+02   3.000000E+02   3.000000E+02   3.000000E+02   3.000000E+02   3.000000E+02   3.000000E+02   3.000000E+02   3.000000E+02   3.000000E+02   3.000000E+02   3.000000E+02   3.000000E+02   3.000000E+02   3.000000E+02   3.000000E+02   3.000000E+02   3.000000E+02   3.000000E+02   3.000000E+02   3.000000E+02   3.000000E+02   3.000000E+02   3.000000E+02   3.000000E+02   3.000000E+02   3.000000E+02   3.000000E+02   3.000000E+02   3.000000E+02   3.000000E+02   3.000000E+02   3.000000E+02   3.000000E+02   3.000000E+02   3.000000E+02   3.000000E+02   3.000000E+02   3.000000E+02   3.000000E+02   3.000000E+02   3.000000E+02   3.000000E+02   3.000000E+02   3.000000E+02   3.000000E+02   3.000000E+02   3.000000E+02   3.000000E+02   3.000000E+02   3.000000E+02   3.000000E+02   3.000000E+02   3.000000E+02   3.000000E+02   3.000000E+02   3.000000E+02   3.000000E+02   3.000000E+02   3.000000E+02   3.000000E+02   3.000000E+02   3.000000E+02   3.000000E+02   3.000000E+02   3.000000E+02   3.000000E+02   3.000000E+02   3.000000E+02   3.000000E+02   3.000000E+02   3.000000E+02   3.000000E+02   3.000000E+02   3.000000E+02   3.000000E+02   3.000000E+02   3.000000E+02   3.000000E+02   3.000000E+02   3.000000E+02   3.000000E+02   3.000000E+02   3.000000E+02   3.000000E+02   3.000000E+02   3.000000E+02   3.000000E+02   3.000000E+02   3.000000E+02   3.000000E+02   3.000000E+02   3.000000E+02   3.000000E+02   3.000000E+02   3.000000E+02   3.000000E+02   3.000000E+02   3.000000E+02   3.000000E+02   3.000000E+02   3.000000E+02   3.000000E+02   3.000000E+02   3.000000E+02   3.000000E+02   3.000000E+02   3.000000E+02   3.000000E+02   3.000000E+02   3.000000E+02   3.000000E+02   3.000000E+02   3.000000E+02   3.000000E+02   3.000000E+02   3.000000E+02   3.000000E+02   3.000000E+02   3.000000E+02   3.000000E+02   3.000000E+02   3.000000E+02   3.000000E+02   3.000000E+02   3.000000E+02   3.000000E+02   3.000000E+02   3.000000E+02   3.000000E+02   3.000000E+02   3.000000E+02   3.000000E+02   3.000000E+02   3.000000E+02   3.000000E+02   3.000000E+02   3.000000E+02   3.000000E+02   3.000000E+02   3.000000E+02   3.000000E+02   3.000000E+02   3.000000E+02   3.000000E+02   3.000000E+02   3.000000E+02   3.000000E+02   3.000000E+02
INTERNAL               1 (104E15.6) -1 #model_top                     
   3.460725E+03   3.198065E+03   3.024907E+03   2.899054E+03   2.894735E+03   3.038420E+03   3.059809E+03   3.098086E+03   3.144307E+03   3.241639E+03   3.411569E+03   3.628362E+03   3.753352E+03   3.671975E+03   3.699928E+03   3.858373E+03   3.797292E+03   3.789395E+03   3.804468E+03   3.874952E+03   3.658387E+03   3.421323E+03   3.336579E+03   3.491838E+03   3.600981E+03   3.746955E+03   3.967815E+03   3.985283E+03   4.125355E+03   4.250542E+03   4.328855E+03   4.165263E+03   4.077449E+03   3.958705E+03   3.956437E+03   3.956437E+03   3.961863E+03   3.967289E+03   3.972715E+03   3.978090E+03   4.136426E+03   4.310759E+03   4.213052E+03   4.139557E+03   4.139557E+03   4.202353E+03   4.292898E+03   4.419946E+03   4.540316E+03   4.557568E+03   4.566826E+03   4.574649E+03   4.488450E+03   4.488450E+03   4.388723E+03   4.147290E+03   4.028752E+03   4.021547E+03   4.058854E+03   4.277860E+03   4.494335E+03   4.737314E+03   4.956112E+03   5.211634E+03   5.340305E+03   5.433311E+03   5.743187E+03   5.844461E+03   5.996327E+03   5.572308E+03   5.184416E+03   4.993417E+03   4.682508E+03   4.453846E+03   4.386821E+03   4.389951E+03   4.339623E+03   4.299382E+03   4.278412E+03   4.261826E+03   4.227416E+03   4.204931E+03   4.215095E+03   4.241709E+03   4.244322E+03   4.345074E+03   4.468469E+03   4.660009E+03   4.722463E+03   4.813320E+03   4.959173E+03   5.061563E+03   5.125110E+03   5.297093E+03   5.180358E+03   5.031150E+03   4.846894E+03   4.830982E+03   4.744969E+03   4.579865E+03   4.429140E+03   4.362262E+03   4.360464E+03   4.360464E+03
   3.434182E+03   3.252077E+03   3.063384E+03   2.848441E+03   2.891181E+03   3.049671E+03   3.056357E+03   3.101368E+03   3.137351E+03   3.233934E+03   3.392695E+03   3.563217E+03   3.628483E+03   3.601872E+03   3.671734E+03   3.834128E+03   3.753376E+03   3.755572E+03   3.804866E+03   3.856165E+03   3.630951E+03   3.426756E+03   3.323485E+03   3.476595E+03   3.725708E+03   3.857600E+03   4.027805E+03   3.963308E+03   4.067019E+03   4.048897E+03   4.289813E+03   4.218002E+03   4.032715E+03   3.963690E+03   3.964110E+03   3.969536E+03   3.974962E+03   3.980388E+03   3.985814E+03   3.991376E+03   4.186368E+03   4.322846E+03   4.361663E+03   4.325922E+03   4.289610E+03   4.263941E+03   4.285556E+03   4.347693E+03   4.524697E+03   4.713545E+03   4.788320E+03   4.721167E+03   4.628978E+03   4.539328E+03   4.341803E+03   4.150413E+03   4.022807E+03   4.007955E+03   4.023591E+03   4.230149E+03   4.478482E+03   4.576175E+03   4.745722E+03   4.948639E+03   5.066752E+03   5.246028E+03   5.424688E+03   5.667875E+03   5.808550E+03   5.432910E+03   4.987486E+03   4.763107E+03   4.526677E+03   4.434164E+03   4.395472E+03   4.362260E+03   4.338222E+03   4.319250E+03   4.270570E+03   4.231582E+03   4.222701E+03   4.199795E+03   4.186432E+03   4.174143E+03   4.194028E+03   4.241211E+03   4.307640E+03   4.480939E+03   4.503403E+03   4.640170E+03   4.797857E+03   5.016805E+03   5.200631E+03   5.168565E+03   4.998521E+03   4.958229E+03   4.943883E+03   4.892391E+03   4.724117E+03   4.544084E+03   4.439088E+03   4.371125E+03   4.396415E+03   4.405319E+03
   3.279008E+03   3.227568E+03   3.077212E+03   2.794943E+03   2.921050E+03   3.005546E+03   3.054758E+03   3.120892E+03   3.175260E+03   3.231530E+03   3.322392E+03   3.397857E+03   3.476275E+03   3.562197E+03   3.680327E+03   3.744302E+03   3.715770E+03   3.731960E+03   3.829482E+03   3.838601E+03   3.614173E+03   3.412305E+03   3.310413E+03   3.436254E+03   3.662054E+03   3.898825E+03   3.911671E+03   3.817400E+03   3.891859E+03   3.930761E+03   4.040926E+03   4.223121E+03   4.042026E+03   3.976789E+03   3.977210E+03   3.982635E+03   3.988061E+03   3.993487E+03   3.998913E+03   4.004348E+03   4.133978E+03   4.209254E+03   4.347375E+03   4.495916E+03   4.499424E+03   4.485901E+03   4.461450E+03   4.474354E+03   4.534959E+03   4.761632E+03   4.769314E+03   4.597460E+03   4.456893E+03   4.347908E+03   4.260864E+03   4.246730E+03   4.045677E+03   3.994856E+03   3.989769E+03   4.130983E+03   4.458153E+03   4.581297E+03   4.720715E+03   4.879451E+03   5.032482E+03   5.201021E+03   5.383628E+03   5.650326E+03   5.620627E+03   5.271517E+03   5.066634E+03   4.813839E+03   4.597000E+03   4.520127E+03   4.515479E+03   4.489105E+03   4.424889E+03   4.439475E+03   4.365133E+03   4.319938E+03   4.286365E+03   4.206752E+03   4.181271E+03   4.174174E+03   4.151957E+03   4.162820E+03   4.208292E+03   4.259073E+03   4.347943E+03   4.495281E+03   4.664154E+03   4.804545E+03   5.075381E+03   5.207241E+03   5.078729E+03   5.091500E+03   5.014065E+03   4.811381E+03   4.673026E+03   4.570035E+03   4.454719E+03   4.402140E+03   4.404450E+03   4.396415E+03
   3.292294E+03   3.163148E+03   3.033353E+03   2.778895E+03   2.857569E+03   2.914889E+03   3.033387E+03   3.046540E+03   3.133440E+03   3.209239E+03   3.310948E+03   3.503225E+03   3.591051E+03   3.663824E+03   3.716172E+03   3.722681E+03   3.670239E+03   3.713787E+03   3.883338E+03   3.784737E+03   3.556495E+03   3.406693E+03   3.297137E+03   3.367568E+03   3.558698E+03   3.756859E+03   3.790615E+03   3.729854E+03   3.817130E+03   3.907590E+03   4.167533E+03   4.287578E+03   4.097969E+03   3.989890E+03   3.990309E+03   3.995735E+03   4.001160E+03   4.006586E+03   4.012012E+03   4.017438E+03   4.022845E+03   4.106220E+03   4.242562E+03   4.416711E+03   4.612696E+03   4.729144E+03   4.623962E+03   4.597897E+03   4.735521E+03   4.712709E+03   4.627126E+03   4.544389E+03   4.485505E+03   4.438901E+03   4.441517E+03   4.334955E+03   4.052072E+03   3.981923E+03   3.976333E+03   4.065514E+03   4.310514E+03   4.547240E+03   4.713735E+03   4.886371E+03   5.073554E+03   5.284077E+03   5.439084E+03   5.621697E+03   5.698006E+03   5.339631E+03   5.028378E+03   4.821640E+03   4.663627E+03   4.635162E+03   4.607746E+03   4.586106E+03   4.538880E+03   4.522288E+03   4.490917E+03   4.475672E+03   4.362947E+03   4.285542E+03   4.221393E+03   4.162652E+03   4.156206E+03   4.133395E+03   4.166808E+03   4.197483E+03   4.246272E+03   4.361039E+03   4.510126E+03   4.685726E+03   5.019211E+03   5.346867E+03   5.275126E+03   5.159397E+03   4.952389E+03   4.832111E+03   4.709871E+03   4.596890E+03   4.477732E+03   4.423007E+03   4.411895E+03   4.416447E+03
   3.326085E+03   3.156323E+03   2.978957E+03   2.761092E+03   2.802496E+03   2.894632E+03   2.959928E+03   3.077131E+03   3.192530E+03   3.240481E+03   3.375735E+03   3.517910E+03   3.713753E+03   3.789393E+03   3.712156E+03   3.630337E+03   3.629355E+03   3.744926E+03   3.910486E+03   3.747431E+03   3.538929E+03   3.396045E+03   3.314637E+03   3.294205E+03   3.428424E+03   3.547184E+03   3.595156E+03   3.660831E+03   3.790066E+03   3.946555E+03   4.193221E+03   4.339224E+03   4.109035E+03   4.002983E+03   4.003408E+03   4.008834E+03   4.014260E+03   4.019686E+03   4.025111E+03   4.030537E+03   4.037927E+03   4.140678E+03   4.202382E+03   4.362869E+03   4.540625E+03   4.766781E+03   4.835123E+03   4.822282E+03   4.893455E+03   4.778593E+03   4.714385E+03   4.685033E+03   4.682467E+03   4.581366E+03   4.524631E+03   4.355929E+03   4.122386E+03   3.998791E+03   3.963232E+03   3.959196E+03   4.158426E+03   4.393411E+03   4.583195E+03   4.800414E+03   5.060129E+03   5.237875E+03   5.410690E+03   5.432327E+03   5.376423E+03   5.315723E+03   5.055725E+03   4.843252E+03   4.708550E+03   4.669931E+03   4.666587E+03   4.712711E+03   4.640343E+03   4.630393E+03   4.665914E+03   4.648461E+03   4.483522E+03   4.376179E+03   4.251175E+03   4.201086E+03   4.143973E+03   4.119448E+03   4.114738E+03   4.153581E+03   4.189307E+03   4.272632E+03   4.459373E+03   4.662392E+03   4.934098E+03   5.232732E+03   5.373587E+03   5.149040E+03   4.968143E+03   4.823865E+03   4.716333E+03   4.608239E+03   4.532532E+03   4.433600E+03   4.464011E+03   4.508629E+03
   3.268166E+03   3.151213E+03   2.925265E+03   2.760156E+03   2.757037E+03   2.912213E+03   3.000333E+03   3.111502E+03   3.209394E+03   3.285561E+03   3.445439E+03   3.647925E+03   3.822025E+03   3.726201E+03   3.639350E+03   3.592808E+03   3.606772E+03   3.760045E+03   3.957867E+03   3.719799E+03   3.532390E+03   3.385551E+03   3.308716E+03   3.276219E+03   3.382527E+03   3.442403E+03   3.518436E+03   3.670348E+03   3.857564E+03   4.078075E+03   4.259590E+03   4.379965E+03   4.143307E+03   4.016088E+03   4.016507E+03   4.021933E+03   4.027359E+03   4.032785E+03   4.038210E+03   4.043636E+03   4.103648E+03   4.297268E+03   4.378741E+03   4.417190E+03   4.581012E+03   4.806022E+03   4.870301E+03   4.772100E+03   4.632890E+03   4.573764E+03   4.706182E+03   4.901675E+03   4.852088E+03   4.758280E+03   4.579436E+03   4.383283E+03   4.206040E+03   4.051303E+03   3.950106E+03   3.944712E+03   4.027893E+03   4.372378E+03   4.667553E+03   4.812863E+03   5.212450E+03   5.232906E+03   5.220559E+03   5.056359E+03   5.018176E+03   5.013101E+03   5.129829E+03   5.003552E+03   4.877318E+03   4.838889E+03   4.784793E+03   4.803450E+03   4.817507E+03   4.714109E+03   4.787395E+03   4.894215E+03   4.604269E+03   4.504895E+03   4.382844E+03   4.288150E+03   4.155222E+03   4.108463E+03   4.100869E+03   4.119911E+03   4.137157E+03   4.215882E+03   4.397702E+03   4.593850E+03   4.834200E+03   5.240843E+03   5.234460E+03   5.017010E+03   4.836473E+03   4.750900E+03   4.696917E+03   4.659373E+03   4.601088E+03   4.503289E+03   4.582423E+03   4.531912E+03
   3.281387E+03   3.187760E+03   2.904521E+03   2.722403E+03   2.737671E+03   2.899812E+03   3.001300E+03   3.133523E+03   3.216341E+03   3.295784E+03   3.469197E+03   3.620698E+03   3.800166E+03   3.694496E+03   3.607847E+03   3.511024E+03   3.637840E+03   3.779953E+03   3.859495E+03   3.710715E+03   3.553651E+03   3.305893E+03   3.209434E+03   3.262082E+03   3.499386E+03   3.585629E+03   3.664149E+03   3.706383E+03   3.888967E+03   4.059373E+03   4.264154E+03   4.437809E+03   4.173382E+03   4.029176E+03   4.029606E+03   4.035032E+03   4.040458E+03   4.045884E+03   4.051310E+03   4.056735E+03   4.109402E+03   4.333408E+03   4.551634E+03   4.624663E+03   4.725122E+03   4.907557E+03   4.802233E+03   4.648130E+03   4.565840E+03   4.502548E+03   4.582232E+03   4.770974E+03   4.932615E+03   4.877842E+03   4.691829E+03   4.526708E+03   4.325265E+03   4.051312E+03   3.936686E+03   3.931608E+03   3.981959E+03   4.193642E+03   4.425026E+03   4.699899E+03   5.160690E+03   4.999232E+03   4.919810E+03   4.811612E+03   4.705467E+03   4.806870E+03   4.938227E+03   5.128067E+03   5.117153E+03   5.075984E+03   4.998826E+03   4.942106E+03   4.958325E+03   4.938133E+03   4.955068E+03   4.940185E+03   4.768704E+03   4.641403E+03   4.536388E+03   4.341139E+03   4.175272E+03   4.098738E+03   4.089636E+03   4.083646E+03   4.124930E+03   4.177606E+03   4.355090E+03   4.570656E+03   4.760097E+03   5.249366E+03   5.253364E+03   5.001827E+03   4.798908E+03   4.698913E+03   4.644368E+03   4.629942E+03   4.598993E+03   4.585472E+03   4.590228E+03   4.556184E+03
   3.330894E+03   3.146686E+03   2.849604E+03   2.697881E+03   2.722315E+03   2.866503E+03   2.988950E+03   3.040523E+03   3.127245E+03   3.241692E+03   3.393286E+03   3.570800E+03   3.704925E+03   3.681975E+03   3.525233E+03   3.473037E+03   3.665433E+03   3.812263E+03   3.617057E+03   3.478016E+03   3.333752E+03   3.210129E+03   3.183214E+03   3.289196E+03   3.542811E+03   3.718272E+03   3.853441E+03   3.849136E+03   3.946305E+03   4.114969E+03   4.278087E+03   4.439214E+03   4.134514E+03   4.042285E+03   4.042706E+03   4.048131E+03   4.053557E+03   4.058981E+03   4.063335E+03   4.057827E+03   4.141180E+03   4.362838E+03   4.557773E+03   4.730027E+03   4.887066E+03   4.794168E+03   4.753225E+03   4.571622E+03   4.417708E+03   4.404246E+03   4.492717E+03   4.533787E+03   4.668903E+03   4.702640E+03   4.702621E+03   4.465324E+03   4.258354E+03   4.043103E+03   3.923637E+03   3.918215E+03   3.958719E+03   4.139345E+03   4.398918E+03   4.514021E+03   4.686664E+03   4.823775E+03   4.829256E+03   4.655735E+03   4.616076E+03   4.745035E+03   4.879467E+03   5.047808E+03   5.209564E+03   5.309155E+03   5.234064E+03   5.178526E+03   5.124642E+03   5.138026E+03   5.035003E+03   4.831507E+03   4.725122E+03   4.581091E+03   4.418812E+03   4.369982E+03   4.224258E+03   4.076946E+03   4.079157E+03   4.069380E+03   4.085535E+03   4.149651E+03   4.341622E+03   4.548280E+03   4.736053E+03   5.136121E+03   5.254885E+03   5.037826E+03   4.897519E+03   4.785532E+03   4.646692E+03   4.594777E+03   4.571140E+03   4.541090E+03   4.533411E+03   4.557532E+03
   3.260664E+03   3.091052E+03   2.817122E+03   2.667012E+03   2.685788E+03   2.847580E+03   2.918103E+03   2.957892E+03   3.083224E+03   3.210104E+03   3.369938E+03   3.546882E+03   3.457389E+03   3.382085E+03   3.300037E+03   3.382555E+03   3.663649E+03   3.554996E+03   3.434838E+03   3.302762E+03   3.173089E+03   3.157126E+03   3.203966E+03   3.310033E+03   3.452471E+03   3.670693E+03   3.921661E+03   4.034404E+03   4.031705E+03   4.184812E+03   4.366830E+03   4.465999E+03   4.234116E+03   4.055336E+03   4.055805E+03   4.061209E+03   4.060726E+03   4.055302E+03   4.050154E+03   4.044728E+03   4.081773E+03   4.307146E+03   4.490559E+03   4.664494E+03   4.824758E+03   4.707994E+03   4.680382E+03   4.496352E+03   4.406927E+03   4.348665E+03   4.329633E+03   4.347854E+03   4.397213E+03   4.461078E+03   4.574676E+03   4.373215E+03   4.235997E+03   4.011340E+03   3.910539E+03   3.905113E+03   3.922296E+03   4.044863E+03   4.211975E+03   4.363308E+03   4.629857E+03   4.806141E+03   4.748567E+03   4.585525E+03   4.572305E+03   4.664271E+03   4.777804E+03   4.918438E+03   5.078150E+03   5.270958E+03   5.466584E+03   5.503305E+03   5.389401E+03   5.281537E+03   5.076504E+03   4.904931E+03   4.808881E+03   4.670688E+03   4.503167E+03   4.349838E+03   4.187270E+03   4.079146E+03   4.057972E+03   4.056327E+03   4.067333E+03   4.121253E+03   4.316618E+03   4.509729E+03   4.688971E+03   4.906615E+03   5.241351E+03   5.048172E+03   4.953680E+03   4.873807E+03   4.712595E+03   4.648232E+03   4.552272E+03   4.487875E+03   4.480380E+03   4.509938E+03
   3.170590E+03   2.961886E+03   2.805326E+03   2.632712E+03   2.675874E+03   2.819129E+03   2.908378E+03   2.944033E+03   3.040366E+03   3.219418E+03   3.385487E+03   3.502163E+03   3.359146E+03   3.262655E+03   3.191513E+03   3.283433E+03   3.415924E+03   3.305895E+03   3.220556E+03   3.113991E+03   3.124115E+03   3.179237E+03   3.297596E+03   3.284471E+03   3.399413E+03   3.578077E+03   3.725685E+03   3.855942E+03   3.963117E+03   4.129262E+03   4.387411E+03   4.327831E+03   4.267166E+03   4.063899E+03   4.058477E+03   4.053051E+03   4.047625E+03   4.042199E+03   4.036774E+03   4.031629E+03   4.025893E+03   4.139304E+03   4.335270E+03   4.552823E+03   4.763084E+03   4.697818E+03   4.627082E+03   4.490212E+03   4.486439E+03   4.364511E+03   4.282261E+03   4.245087E+03   4.263955E+03   4.218858E+03   4.095662E+03   4.017495E+03   3.951565E+03   3.914743E+03   3.901570E+03   3.892014E+03   3.886587E+03   3.911791E+03   4.053140E+03   4.217980E+03   4.450436E+03   4.663546E+03   4.783453E+03   4.596953E+03   4.526527E+03   4.519715E+03   4.633691E+03   4.810541E+03   4.969260E+03   5.154303E+03   5.337006E+03   5.362399E+03   5.458999E+03   5.383101E+03   5.190135E+03   5.081496E+03   4.948479E+03   4.784623E+03   4.687303E+03   4.459256E+03   4.261660E+03   4.088685E+03   4.045015E+03   4.042262E+03   4.070223E+03   4.126388E+03   4.241350E+03   4.411473E+03   4.621512E+03   4.811166E+03   5.093817E+03   5.252186E+03   5.042871E+03   4.913824E+03   4.833746E+03   4.724577E+03   4.585112E+03   4.466493E+03   4.426667E+03   4.485401E+03
   3.010826E+03   2.888725E+03   2.720434E+03   2.617680E+03   2.696034E+03   2.802444E+03   2.886162E+03   2.956796E+03   3.086056E+03   3.278267E+03   3.438457E+03   3.369593E+03   3.275399E+03   3.208175E+03   3.102696E+03   3.159552E+03   3.192135E+03   3.119420E+03   3.067243E+03   3.092532E+03   3.266072E+03   3.339896E+03   3.326095E+03   3.406330E+03   3.490906E+03   3.643069E+03   3.796295E+03   3.891555E+03   4.053181E+03   4.185692E+03   4.395659E+03   4.257645E+03   4.150189E+03   4.050846E+03   4.045378E+03   4.039952E+03   4.034526E+03   4.029100E+03   4.023674E+03   4.018249E+03   4.013104E+03   4.078470E+03   4.251435E+03   4.457560E+03   4.677710E+03   4.766804E+03   4.622634E+03   4.539192E+03   4.496230E+03   4.436220E+03   4.354235E+03   4.200218E+03   4.175056E+03   4.191240E+03   4.036123E+03   3.966449E+03   3.938779E+03   3.909235E+03   3.896144E+03   3.883045E+03   3.873489E+03   3.868063E+03   3.878948E+03   4.044295E+03   4.275669E+03   4.461024E+03   4.674969E+03   4.682507E+03   4.492706E+03   4.445689E+03   4.550987E+03   4.720294E+03   4.859528E+03   4.999315E+03   5.136619E+03   5.179690E+03   5.212337E+03   5.088759E+03   5.024505E+03   4.926395E+03   4.825463E+03   4.849964E+03   4.636836E+03   4.456504E+03   4.246673E+03   4.110197E+03   4.031883E+03   4.027751E+03   4.056607E+03   4.118857E+03   4.316642E+03   4.463566E+03   4.648763E+03   4.850031E+03   5.077495E+03   5.254311E+03   4.970939E+03   4.796872E+03   4.748176E+03   4.651811E+03   4.583371E+03   4.476974E+03   4.412975E+03   4.430312E+03
   2.989524E+03   2.769630E+03   2.628070E+03   2.588663E+03   2.709961E+03   2.792808E+03   2.885145E+03   2.975132E+03   3.110130E+03   3.270128E+03   3.327280E+03   3.256976E+03   3.134521E+03   3.088736E+03   2.989005E+03   2.971888E+03   2.983375E+03   2.975455E+03   3.046043E+03   3.145868E+03   3.292182E+03   3.500810E+03   3.526934E+03   3.467163E+03   3.488328E+03   3.659428E+03   3.803572E+03   4.098755E+03   4.155595E+03   4.301513E+03   4.491764E+03   4.405458E+03   4.293434E+03   4.064721E+03   4.032279E+03   4.026853E+03   4.021427E+03   4.016001E+03   4.010575E+03   4.005149E+03   3.999724E+03   4.029127E+03   4.205331E+03   4.365417E+03   4.599078E+03   4.792539E+03   4.651077E+03   4.578835E+03   4.583202E+03   4.528750E+03   4.353752E+03   4.235517E+03   4.181422E+03   4.105646E+03   4.061505E+03   4.034850E+03   4.002501E+03   3.990920E+03   3.890651E+03   3.877619E+03   3.864520E+03   3.854964E+03   3.849538E+03   3.903011E+03   4.134456E+03   4.410083E+03   4.580531E+03   4.576447E+03   4.378868E+03   4.362767E+03   4.483992E+03   4.596424E+03   4.739318E+03   4.880548E+03   4.945296E+03   4.974595E+03   5.052950E+03   4.886638E+03   4.666569E+03   4.533985E+03   4.572668E+03   4.688089E+03   4.712782E+03   4.511487E+03   4.261507E+03   4.054051E+03   4.020442E+03   4.014655E+03   4.038285E+03   4.136890E+03   4.289094E+03   4.455042E+03   4.640905E+03   4.861201E+03   5.126720E+03   5.118653E+03   4.901485E+03   4.734893E+03   4.656591E+03   4.595225E+03   4.528925E+03   4.489713E+03   4.406270E+03   4.399053E+03
   2.888620E+03   2.714097E+03   2.584060E+03   2.651517E+03   2.714859E+03   2.794990E+03   2.862984E+03   3.005928E+03   3.146956E+03   3.275847E+03   3.197766E+03   3.071955E+03   2.973516E+03   2.911656E+03   2.926229E+03   2.933111E+03   2.961636E+03   3.029217E+03   3.141783E+03   3.233401E+03   3.301666E+03   3.471506E+03   3.703803E+03   3.538426E+03   3.506844E+03   3.644248E+03   3.829619E+03   3.956166E+03   4.089024E+03   4.268366E+03   4.436989E+03   4.315776E+03   4.188822E+03   4.107616E+03   4.019170E+03   4.013753E+03   4.008328E+03   4.002902E+03   3.997476E+03   3.992050E+03   3.986624E+03   3.981241E+03   4.117652E+03   4.315086E+03   4.521015E+03   4.757153E+03   4.689463E+03   4.732539E+03   4.696717E+03   4.498550E+03   4.433907E+03   4.364042E+03   4.342930E+03   4.279290E+03   4.157105E+03   4.169078E+03   4.163726E+03   4.198625E+03   4.092938E+03   3.949163E+03   3.859092E+03   3.845995E+03   3.836439E+03   3.830946E+03   3.999635E+03   4.290550E+03   4.467242E+03   4.475798E+03   4.274939E+03   4.262488E+03   4.381220E+03   4.500844E+03   4.665600E+03   4.748312E+03   4.741123E+03   4.775028E+03   4.888638E+03   4.822751E+03   4.598656E+03   4.393172E+03   4.312576E+03   4.313110E+03   4.437790E+03   4.480355E+03   4.207740E+03   4.045363E+03   4.005707E+03   4.001510E+03   4.011967E+03   4.129346E+03   4.313912E+03   4.536108E+03   4.681008E+03   4.896331E+03   5.103896E+03   5.205362E+03   5.019368E+03   4.824727E+03   4.730221E+03   4.647355E+03   4.534684E+03   4.465448E+03   4.424692E+03   4.399053E+03
   2.808334E+03   2.614075E+03   2.584060E+03   2.691664E+03   2.759503E+03   2.856042E+03   2.966463E+03   3.065266E+03   3.202033E+03   3.207990E+03   3.070205E+03   2.963262E+03   2.860051E+03   2.854133E+03   2.920315E+03   3.074840E+03   3.154595E+03   3.199717E+03   3.280433E+03   3.300196E+03   3.370233E+03   3.497684E+03   3.676116E+03   3.654078E+03   3.551517E+03   3.612695E+03   3.774795E+03   3.903080E+03   4.022453E+03   4.161346E+03   4.392252E+03   4.421446E+03   4.303243E+03   4.187770E+03   4.016928E+03   4.000650E+03   3.995229E+03   3.989803E+03   3.984377E+03   3.978951E+03   3.973525E+03   3.968102E+03   4.076304E+03   4.275693E+03   4.483645E+03   4.706439E+03   4.867112E+03   4.918402E+03   4.803241E+03   4.634908E+03   4.627965E+03   4.569695E+03   4.489832E+03   4.300882E+03   4.253466E+03   4.315177E+03   4.337760E+03   4.376585E+03   4.238287E+03   4.107527E+03   3.912139E+03   3.840569E+03   3.827470E+03   3.817914E+03   3.908921E+03   4.158658E+03   4.365535E+03   4.278567E+03   4.133921E+03   4.172618E+03   4.305272E+03   4.464676E+03   4.617581E+03   4.548917E+03   4.546357E+03   4.627421E+03   4.791044E+03   4.826791E+03   4.635540E+03   4.465811E+03   4.321728E+03   4.249363E+03   4.274329E+03   4.439246E+03   4.233291E+03   3.990409E+03   3.986398E+03   3.994152E+03   3.998707E+03   4.172485E+03   4.410176E+03   4.576997E+03   4.737536E+03   4.919964E+03   5.077935E+03   5.186025E+03   5.157863E+03   5.145293E+03   4.918175E+03   4.694642E+03   4.590444E+03   4.499952E+03   4.400900E+03   4.390788E+03
   2.719691E+03   2.562370E+03   2.600159E+03   2.701888E+03   2.757924E+03   2.888655E+03   3.034048E+03   3.109591E+03   3.188548E+03   3.149455E+03   2.983091E+03   2.901288E+03   2.812233E+03   2.891062E+03   3.085389E+03   3.269431E+03   3.362198E+03   3.385954E+03   3.478771E+03   3.561374E+03   3.653397E+03   3.693784E+03   3.822598E+03   3.832220E+03   3.645495E+03   3.621714E+03   3.759712E+03   3.921910E+03   4.077667E+03   4.243435E+03   4.435967E+03   4.426550E+03   4.248238E+03   4.188168E+03   4.254257E+03   4.016268E+03   3.982129E+03   3.976704E+03   3.971278E+03   3.965852E+03   3.960426E+03   3.955001E+03   4.076443E+03   4.277701E+03   4.472566E+03   4.721740E+03   4.839032E+03   4.874185E+03   4.719875E+03   4.776670E+03   4.713226E+03   4.521581E+03   4.423116E+03   4.327604E+03   4.377522E+03   4.456773E+03   4.493707E+03   4.481312E+03   4.392984E+03   4.133415E+03   3.932242E+03   3.835144E+03   3.822044E+03   3.808945E+03   3.816858E+03   4.013458E+03   4.116936E+03   4.069225E+03   3.978098E+03   4.079641E+03   4.251196E+03   4.367947E+03   4.433875E+03   4.436826E+03   4.406837E+03   4.584283E+03   4.743104E+03   4.912614E+03   4.720703E+03   4.565059E+03   4.400429E+03   4.255732E+03   4.148987E+03   4.270352E+03   4.102757E+03   3.979227E+03   3.968515E+03   3.972214E+03   3.988434E+03   4.172820E+03   4.263854E+03   4.496577E+03   4.678173E+03   4.896041E+03   5.046381E+03   5.137324E+03   5.212126E+03   5.144081E+03   4.884103E+03   4.733633E+03   4.685346E+03   4.571058E+03   4.446274E+03   4.371259E+03
   2.699725E+03   2.508129E+03   2.640294E+03   2.726275E+03   2.788059E+03   2.941322E+03   3.088247E+03   3.088595E+03   3.027477E+03   2.959606E+03   2.894093E+03   2.767755E+03   2.788012E+03   2.991735E+03   3.142356E+03   3.327004E+03   3.441348E+03   3.472433E+03   3.508145E+03   3.559479E+03   3.622521E+03   3.693604E+03   3.767964E+03   3.846588E+03   3.748979E+03   3.698892E+03   3.731747E+03   3.853141E+03   4.004537E+03   4.220881E+03   4.433861E+03   4.469922E+03   4.367725E+03   4.382734E+03   4.312773E+03   4.092450E+03   3.968459E+03   3.963607E+03   3.958178E+03   3.952753E+03   3.947327E+03   3.941900E+03   4.013205E+03   4.226896E+03   4.457819E+03   4.714548E+03   4.579779E+03   4.569106E+03   4.503806E+03   4.502379E+03   4.601124E+03   4.639961E+03   4.496216E+03   4.475145E+03   4.458515E+03   4.622862E+03   4.664739E+03   4.510622E+03   4.256845E+03   4.096551E+03   3.910921E+03   3.829718E+03   3.816618E+03   3.803519E+03   3.790420E+03   3.828278E+03   3.890929E+03   3.905470E+03   3.839011E+03   3.991559E+03   4.115331E+03   4.247950E+03   4.265295E+03   4.298822E+03   4.344844E+03   4.578486E+03   4.687148E+03   4.715868E+03   4.812734E+03   4.645707E+03   4.506312E+03   4.280288E+03   4.124952E+03   4.099453E+03   4.044978E+03   3.964857E+03   3.948181E+03   3.946690E+03   3.995612E+03   4.074868E+03   4.302979E+03   4.503618E+03   4.652479E+03   4.862632E+03   5.000701E+03   5.098840E+03   5.150501E+03   5.176506E+03   5.127255E+03   4.917484E+03   4.709172E+03   4.531262E+03   4.446199E+03   4.371259E+03